11
 energy: -32.669890965071 gnorm: 0.000611731021 xtb: 6.6.1 (8d0f1dd)
C           -0.18022694860190        0.36094511179178       -1.08342014246315
C           -0.18022688057722        1.57129980965541       -0.38183851622676
C           -0.18022689950532        1.50226240584698        1.01146635095285
N           -0.18022684181132        0.36094511338378        1.65166278768505
C           -0.18022675523949       -0.78037216956631        1.01146627864155
C           -0.18022680455481       -0.84940967731426       -0.38183853279512
I           -0.18022664763630        0.36094796080190       -3.18099993270422
I           -0.18022693630587        3.42366644664531       -1.35381491925400
I           -0.18022675458761        3.19341609691903        2.24632549834266
I           -0.18022683454142       -2.47152642948686        2.24632431354640
I           -0.18022694763873       -2.70177837067676       -1.35381138572525
